Type II
                    3D
 Structure written by MMmdl.
148159  0  0  1  0            999 V2000
  -10.6084   -0.7481    2.4384 C   0  0  0  0  0  0
  -11.0703    0.1240    3.4573 C   0  0  0  0  0  0
  -10.0191   -1.9872    2.7535 C   0  0  0  0  0  0
  -10.9506   -0.3016    4.8031 C   0  0  0  0  0  0
  -11.6593    1.3882    3.1604 C   0  0  0  0  0  0
  -10.3570   -1.5414    5.1189 C   0  0  0  0  0  0
  -11.4315    0.5085    5.8417 C   0  0  0  0  0  0
   -9.8878   -2.3834    4.0954 C   0  0  0  0  0  0
  -12.2230    2.1426    4.2253 C   0  0  0  0  0  0
  -11.7276    1.8926    1.7614 C   0  0  0  0  0  0
  -12.0649    1.7355    5.5753 C   0  0  0  0  0  0
  -12.9308    3.2775    3.9329 O   0  0  0  0  0  0
  -12.7805    2.6641    7.0691 Si  0  0  0  0  0  0
  -10.5637    2.1183    0.9748 C   0  0  0  0  0  0
  -12.9948    2.1152    1.1695 C   0  0  0  0  0  0
  -10.6917    2.3901   -0.4101 C   0  0  0  0  0  0
   -9.2646    2.0678    1.5372 C   0  0  0  0  0  0
  -11.9651    2.4534   -1.0001 C   0  0  0  0  0  0
   -9.5472    2.5792   -1.2119 C   0  0  0  0  0  0
  -13.1330    2.3396   -0.2232 C   0  0  0  0  0  0
  -14.8086    2.4361   -1.1238 Si  0  0  0  0  0  0
  -14.0909    2.1166    1.9818 O   0  0  0  0  0  0
   -8.1235    2.2661    0.7369 C   0  0  0  0  0  0
   -8.2637    2.5180   -0.6394 C   0  0  0  0  0  0
  -14.3371    3.2639    3.1135 P   0  0  0  0  0  0
  -15.5493    3.0479    3.9541 O   0  0  0  0  0  0
  -11.6986    2.2842    8.5761 C   0  0  0  0  0  0
  -12.7580    4.5404    6.8252 C   0  0  0  0  0  0
  -14.5224    2.0310    7.4467 C   0  0  0  0  0  0
  -15.0742    4.1236   -1.9548 C   0  0  0  0  0  0
  -14.7893    1.1040   -2.4655 C   0  0  0  0  0  0
  -16.2473    2.0722    0.0514 C   0  0  0  0  0  0
  -11.9739    1.1675    9.3958 C   0  0  0  0  0  0
  -10.5464    3.0547    8.8431 C   0  0  0  0  0  0
  -11.7283    5.1479    6.0745 C   0  0  0  0  0  0
  -13.6756    5.3670    7.5089 C   0  0  0  0  0  0
  -15.1430    2.3393    8.6770 C   0  0  0  0  0  0
  -15.2372    1.2690    6.4983 C   0  0  0  0  0  0
  -16.3808    4.5408   -2.2931 C   0  0  0  0  0  0
  -13.9891    4.9411   -2.3411 C   0  0  0  0  0  0
  -15.5378    1.2626   -3.6517 C   0  0  0  0  0  0
  -14.0989   -0.1095   -2.2540 C   0  0  0  0  0  0
  -16.9420    3.1261    0.6808 C   0  0  0  0  0  0
  -16.5709    0.7440    0.4021 C   0  0  0  0  0  0
  -11.1390    0.8508   10.4850 C   0  0  0  0  0  0
  -10.0065    1.6411   10.7554 C   0  0  0  0  0  0
   -9.7084    2.7423    9.9313 C   0  0  0  0  0  0
  -11.6357    6.5495    5.9822 C   0  0  0  0  0  0
  -12.5706    7.3617    6.6498 C   0  0  0  0  0  0
  -13.5910    6.7692    7.4161 C   0  0  0  0  0  0
  -16.4499    1.8948    8.9558 C   0  0  0  0  0  0
  -17.1524    1.1369    8.0008 C   0  0  0  0  0  0
  -16.5443    0.8224    6.7717 C   0  0  0  0  0  0
  -16.6042    5.7659   -2.9503 C   0  0  0  0  0  0
  -15.5147    6.5826   -3.3022 C   0  0  0  0  0  0
  -14.2052    6.1662   -3.0019 C   0  0  0  0  0  0
  -15.5624    0.2468   -4.6271 C   0  0  0  0  0  0
  -14.8503   -0.9487   -4.4162 C   0  0  0  0  0  0
  -14.1206   -1.1283   -3.2263 C   0  0  0  0  0  0
  -17.9582    2.8669    1.6191 C   0  0  0  0  0  0
  -18.2810    1.5382    1.9506 C   0  0  0  0  0  0
  -17.5861    0.4761    1.3417 C   0  0  0  0  0  0
  -18.7349    9.0087    6.3504 C   0  0  0  0  0  0
  -18.2605    7.8614    5.6856 C   0  0  0  0  0  0
  -16.8886    7.7235    5.3831 C   0  0  0  0  0  0
  -15.9967    8.7479    5.7656 C   0  0  0  0  0  0
  -16.4676    9.8981    6.4283 C   0  0  0  0  0  0
  -17.8385   10.0292    6.7203 C   0  0  0  0  0  0
  -16.3518    6.5394    4.6760 C   0  0  0  0  0  0
  -16.5641    6.1399    3.4823 N   0  0  0  0  0  0
  -17.6080    6.9213    2.4336 S   0  0  0  0  0  0
  -17.3114    6.4199    1.0844 O   0  0  0  0  0  0
  -18.9909    6.8170    2.9238 O   0  0  0  0  0  0
  -17.1227    8.6648    2.4540 C   0  0  0  0  0  0
  -18.0881    9.6590    2.6932 C   0  0  0  0  0  0
  -17.6667   10.9950    2.7358 C   0  0  0  0  0  0
  -16.3053   11.2746    2.5276 C   0  0  0  0  0  0
  -15.4226   10.2070    2.2877 C   0  0  0  0  0  0
  -15.8130    8.9231    2.2507 N   0  0  0  0  0  0
  -17.7535    3.7380    5.3933 N   0  0  0  0  0  0
  -19.1168    3.7019    5.1959 C   0  0  0  0  0  0
  -19.6834    4.3992    6.2268 C   0  0  0  0  0  0
  -18.6311    4.8750    7.0650 C   0  0  0  0  0  0
  -17.4446    4.4785    6.5130 C   0  0  0  0  0  0
  -10.6993   -0.4868    1.3950 H   0  0  0  0  0  0
   -9.6685   -2.6340    1.9622 H   0  0  0  0  0  0
  -10.2631   -1.8556    6.1486 H   0  0  0  0  0  0
  -11.3347    0.1693    6.8628 H   0  0  0  0  0  0
   -9.4352   -3.3337    4.3396 H   0  0  0  0  0  0
   -9.1257    1.8811    2.5918 H   0  0  0  0  0  0
  -12.0523    2.6048   -2.0667 H   0  0  0  0  0  0
   -9.6471    2.7772   -2.2693 H   0  0  0  0  0  0
   -7.1400    2.2247    1.1821 H   0  0  0  0  0  0
   -7.3884    2.6689   -1.2545 H   0  0  0  0  0  0
  -12.8366    0.5489    9.1902 H   0  0  0  0  0  0
  -10.3043    3.8982    8.2124 H   0  0  0  0  0  0
  -10.9980    4.5344    5.5654 H   0  0  0  0  0  0
  -14.4473    4.9270    8.1221 H   0  0  0  0  0  0
  -14.6095    2.9199    9.4165 H   0  0  0  0  0  0
  -14.7890    1.0289    5.5454 H   0  0  0  0  0  0
  -17.2269    3.9185   -2.0366 H   0  0  0  0  0  0
  -12.9759    4.6471   -2.1195 H   0  0  0  0  0  0
  -16.0951    2.1729   -3.8202 H   0  0  0  0  0  0
  -13.5440   -0.2602   -1.3387 H   0  0  0  0  0  0
  -16.6878    4.1476    0.4433 H   0  0  0  0  0  0
  -16.0330   -0.0774   -0.0492 H   0  0  0  0  0  0
  -11.3663   -0.0002   11.1109 H   0  0  0  0  0  0
   -9.3644    1.4001   11.5902 H   0  0  0  0  0  0
   -8.8352    3.3465   10.1314 H   0  0  0  0  0  0
  -10.8516    7.0007    5.3915 H   0  0  0  0  0  0
  -12.5017    8.4369    6.5741 H   0  0  0  0  0  0
  -14.3041    7.3895    7.9402 H   0  0  0  0  0  0
  -16.9178    2.1416    9.8977 H   0  0  0  0  0  0
  -18.1609    0.8079    8.2048 H   0  0  0  0  0  0
  -17.0861    0.2529    6.0306 H   0  0  0  0  0  0
  -17.6122    6.0773   -3.1833 H   0  0  0  0  0  0
  -15.6832    7.5240   -3.8046 H   0  0  0  0  0  0
  -13.3651    6.7884   -3.2745 H   0  0  0  0  0  0
  -16.1318    0.3839   -5.5352 H   0  0  0  0  0  0
  -14.8698   -1.7293   -5.1628 H   0  0  0  0  0  0
  -13.5812   -2.0491   -3.0573 H   0  0  0  0  0  0
  -18.4782    3.6902    2.0897 H   0  0  0  0  0  0
  -19.0552    1.3342    2.6757 H   0  0  0  0  0  0
  -17.8268   -0.5448    1.6007 H   0  0  0  0  0  0
  -19.7873    9.1005    6.5780 H   0  0  0  0  0  0
  -18.9558    7.0791    5.4130 H   0  0  0  0  0  0
  -14.9442    8.6568    5.5329 H   0  0  0  0  0  0
  -15.7768   10.6792    6.7116 H   0  0  0  0  0  0
  -18.2021   10.9091    7.2317 H   0  0  0  0  0  0
  -15.6057    5.9890    5.2537 H   0  0  0  0  0  0
  -19.1192    9.3812    2.8571 H   0  0  0  0  0  0
  -18.3724   11.7904    2.9265 H   0  0  0  0  0  0
  -15.9394   12.2910    2.5512 H   0  0  0  0  0  0
  -14.3711   10.3927    2.1254 H   0  0  0  0  0  0
  -17.0413    3.3073    4.7879 H   0  0  0  0  0  0
  -19.5500    3.1845    4.3521 H   0  0  0  0  0  0
  -20.7444    4.5477    6.3677 H   0  0  0  0  0  0
  -18.7337    5.4507    7.9736 H   0  0  0  0  0  0
  -16.4223    4.5944    6.8405 H   0  0  0  0  0  0
  -15.2414    5.2055    2.5082 H   0  0  0  0  0  0
  -14.3955    4.7120    2.2042 N   0  0  0  0  0  0
  -13.1286    5.8325    2.3082 S   0  0  0  0  0  0
  -11.8499    5.1151    2.2032 O   0  0  0  0  0  0
  -13.4008    6.7076    3.4574 O   0  0  0  0  0  0
  -13.3168    6.8319    0.7645 C   0  0  0  0  0  0
  -12.4043    6.4391   -0.1231 F   0  0  0  0  0  0
  -14.5415    6.6680    0.2685 F   0  0  0  0  0  0
  -13.1225    8.1169    1.0556 F   0  0  0  0  0  0
  1  2  1  0  0  0
  1  3  2  0  0  0
  1 85  1  0  0  0
  2  4  2  0  0  0
  2  5  1  0  0  0
  3  8  1  0  0  0
  3 86  1  0  0  0
  4  6  1  0  0  0
  4  7  1  0  0  0
  5  9  2  0  0  0
  5 10  1  0  0  0
  6  8  2  0  0  0
  6 87  1  0  0  0
  7 11  2  0  0  0
  7 88  1  0  0  0
  8 89  1  0  0  0
  9 11  1  0  0  0
  9 12  1  0  0  0
 10 14  2  0  0  0
 10 15  1  0  0  0
 11 13  1  0  0  0
 12 25  1  0  0  0
 13 27  1  0  0  0
 13 28  1  0  0  0
 13 29  1  0  0  0
 14 16  1  0  0  0
 14 17  1  0  0  0
 15 22  1  0  0  0
 15 20  2  0  0  0
 16 18  2  0  0  0
 16 19  1  0  0  0
 17 23  2  0  0  0
 17 90  1  0  0  0
 18 20  1  0  0  0
 18 91  1  0  0  0
 19 24  2  0  0  0
 19 92  1  0  0  0
 20 21  1  0  0  0
 21 30  1  0  0  0
 21 31  1  0  0  0
 21 32  1  0  0  0
 22 25  1  0  0  0
 23 24  1  0  0  0
 23 93  1  0  0  0
 24 94  1  0  0  0
 25 26  2  0  0  0
 25141  1  0  0  0
 27 33  2  0  0  0
 27 34  1  0  0  0
 28 35  2  0  0  0
 28 36  1  0  0  0
 29 37  2  0  0  0
 29 38  1  0  0  0
 30 39  2  0  0  0
 30 40  1  0  0  0
 31 41  2  0  0  0
 31 42  1  0  0  0
 32 43  2  0  0  0
 32 44  1  0  0  0
 33 45  1  0  0  0
 33 95  1  0  0  0
 34 47  2  0  0  0
 34 96  1  0  0  0
 35 48  1  0  0  0
 35 97  1  0  0  0
 36 50  2  0  0  0
 36 98  1  0  0  0
 37 51  1  0  0  0
 37 99  1  0  0  0
 38 53  2  0  0  0
 38100  1  0  0  0
 39 54  1  0  0  0
 39101  1  0  0  0
 40 56  2  0  0  0
 40102  1  0  0  0
 41 57  1  0  0  0
 41103  1  0  0  0
 42 59  2  0  0  0
 42104  1  0  0  0
 43 60  1  0  0  0
 43105  1  0  0  0
 44 62  2  0  0  0
 44106  1  0  0  0
 45 46  2  0  0  0
 45107  1  0  0  0
 46 47  1  0  0  0
 46108  1  0  0  0
 47109  1  0  0  0
 48 49  2  0  0  0
 48110  1  0  0  0
 49 50  1  0  0  0
 49111  1  0  0  0
 50112  1  0  0  0
 51 52  2  0  0  0
 51113  1  0  0  0
 52 53  1  0  0  0
 52114  1  0  0  0
 53115  1  0  0  0
 54 55  2  0  0  0
 54116  1  0  0  0
 55 56  1  0  0  0
 55117  1  0  0  0
 56118  1  0  0  0
 57 58  2  0  0  0
 57119  1  0  0  0
 58 59  1  0  0  0
 58120  1  0  0  0
 59121  1  0  0  0
 60 61  2  0  0  0
 60122  1  0  0  0
 61 62  1  0  0  0
 61123  1  0  0  0
 62124  1  0  0  0
 63 64  1  0  0  0
 63 68  2  0  0  0
 63125  1  0  0  0
 64 65  2  0  0  0
 64126  1  0  0  0
 65 66  1  0  0  0
 65 69  1  0  0  0
 66 67  2  0  0  0
 66127  1  0  0  0
 67 68  1  0  0  0
 67128  1  0  0  0
 68129  1  0  0  0
 69 70  2  0  0  0
 69130  1  0  0  0
 70 71  1  0  0  0
 71 72  2  0  0  0
 71 73  2  0  0  0
 71 74  1  0  0  0
 74 75  2  0  0  0
 74 79  1  0  0  0
 75 76  1  0  0  0
 75131  1  0  0  0
 76 77  2  0  0  0
 76132  1  0  0  0
 77 78  1  0  0  0
 77133  1  0  0  0
 78 79  2  0  0  0
 78134  1  0  0  0
 80 81  1  0  0  0
 80 84  1  0  0  0
 80135  1  0  0  0
 81 82  2  0  0  0
 81136  1  0  0  0
 82 83  1  0  0  0
 82137  1  0  0  0
 83 84  2  0  0  0
 83138  1  0  0  0
 84139  1  0  0  0
140141  1  0  0  0
141142  1  0  0  0
142143  2  0  0  0
142144  2  0  0  0
142145  1  0  0  0
145146  1  0  0  0
145147  1  0  0  0
145148  1  0  0  0
M  END
> <s_m_entry_id>
320

> <s_m_entry_name>
Toru-SiPh3-Type-I-Z.1

> <s_m_job_name>
Toru-SiPh3-NTf-Z-conformations-boundedtophosphoryl

> <r_mmod_Relative_Potential_Energy-OPLS-2005>
10.2977752685547

> <r_mmod_Potential_Energy-OPLS-2005>
76.1303939819336

> <b_mmod_Minimization_Converged-OPLS-2005>
1

> <r_mmod_RMS_Derivative-OPLS-2005>
0.000782036106102169

> <i_mmod_Times_Found-OPLS-2005>
504

> <i_mmod_Conformation-OPLS-2005>
4

> <i_mmod_Serial_Number-OPLS-2005>
1

> <s_m_Source_Path>
/home/ab2144/Toru-SiPh3-Type-I-Z.sdf

> <s_m_Source_File>
Toru-SiPh3-Type-I-Z.sdf

$$$$
