
                    3D
 Structure written by MMmdl.
141152  0  0  1  0            999 V2000
   -7.8056    3.6742   -0.7541 C   0  0  0  0  0  0
   -8.3780    4.3034    0.3806 C   0  0  0  0  0  0
   -6.4614    3.8986   -1.1074 C   0  0  0  0  0  0
   -7.5521    5.1436    1.1672 C   0  0  0  0  0  0
   -9.7392    4.0984    0.7487 C   0  0  0  0  0  0
   -6.2066    5.3708    0.8107 C   0  0  0  0  0  0
   -8.0672    5.7582    2.3181 C   0  0  0  0  0  0
   -5.6613    4.7514   -0.3277 C   0  0  0  0  0  0
  -10.2098    4.6607    1.9664 C   0  0  0  0  0  0
  -10.6493    3.2789   -0.0951 C   0  0  0  0  0  0
   -9.3933    5.5336    2.7305 C   0  0  0  0  0  0
  -11.4749    4.3521    2.3944 O   0  0  0  0  0  0
   -9.9595    6.3518    4.3454 Si  0  0  0  0  0  0
  -10.9847    3.6322   -1.4315 C   0  0  0  0  0  0
  -11.1932    2.0888    0.4444 C   0  0  0  0  0  0
  -11.7513    2.7407   -2.2242 C   0  0  0  0  0  0
  -10.5839    4.8678   -1.9967 C   0  0  0  0  0  0
  -12.1666    1.5059   -1.6966 C   0  0  0  0  0  0
  -12.0944    3.0765   -3.5501 C   0  0  0  0  0  0
  -11.8696    1.1481   -0.3679 C   0  0  0  0  0  0
  -12.4863   -0.5309    0.2742 Si  0  0  0  0  0  0
  -11.1031    1.8955    1.7914 O   0  0  0  0  0  0
  -10.9300    5.2014   -3.3199 C   0  0  0  0  0  0
  -11.6847    4.3056   -4.0980 C   0  0  0  0  0  0
  -11.9436    2.8459    2.8085 P   0  0  0  0  0  0
  -11.8765    2.4997    4.2538 O   0  0  0  0  0  0
  -13.4268    2.7652    2.1861 O   0  0  0  0  0  0
   -9.9026    5.1001    5.7634 C   0  0  0  0  0  0
   -8.7332    7.7218    4.8082 C   0  0  0  0  0  0
  -11.6639    7.1325    4.0694 C   0  0  0  0  0  0
  -14.2414   -0.3987    0.9630 C   0  0  0  0  0  0
  -12.4890   -1.7421   -1.1843 C   0  0  0  0  0  0
  -11.3417   -1.2094    1.6239 C   0  0  0  0  0  0
   -9.4111    3.7933    5.5543 C   0  0  0  0  0  0
  -10.2761    5.4821    7.0700 C   0  0  0  0  0  0
   -8.8854    9.0393    4.3231 C   0  0  0  0  0  0
   -7.5870    7.4104    5.5725 C   0  0  0  0  0  0
  -12.6791    7.0618    5.0461 C   0  0  0  0  0  0
  -11.9026    7.8865    2.8991 C   0  0  0  0  0  0
  -14.7606   -1.4278    1.7786 C   0  0  0  0  0  0
  -15.0849    0.6724    0.6015 C   0  0  0  0  0  0
  -13.5340   -2.6765   -1.3518 C   0  0  0  0  0  0
  -11.4021   -1.7718   -2.0859 C   0  0  0  0  0  0
  -10.2293   -2.0150    1.2967 C   0  0  0  0  0  0
  -11.5337   -0.8407    2.9726 C   0  0  0  0  0  0
   -9.3308    2.8748    6.6188 C   0  0  0  0  0  0
   -9.7232    3.2625    7.9131 C   0  0  0  0  0  0
  -10.1931    4.5693    8.1391 C   0  0  0  0  0  0
   -7.9340   10.0328    4.6263 C   0  0  0  0  0  0
   -6.8074    9.7140    5.4067 C   0  0  0  0  0  0
   -6.6326    8.3999    5.8781 C   0  0  0  0  0  0
  -13.9130    7.7120    4.8511 C   0  0  0  0  0  0
  -14.1367    8.4642    3.6834 C   0  0  0  0  0  0
  -13.1277    8.5549    2.7067 C   0  0  0  0  0  0
  -16.0854   -1.3708    2.2534 C   0  0  0  0  0  0
  -16.9083   -0.2827    1.9090 C   0  0  0  0  0  0
  -16.4084    0.7371    1.0791 C   0  0  0  0  0  0
  -13.5104   -3.5995   -2.4157 C   0  0  0  0  0  0
  -12.4305   -3.6065   -3.3179 C   0  0  0  0  0  0
  -11.3734   -2.6928   -3.1511 C   0  0  0  0  0  0
   -9.3501   -2.4702    2.2992 C   0  0  0  0  0  0
   -9.5640   -2.1071    3.6420 C   0  0  0  0  0  0
  -10.6560   -1.2864    3.9786 C   0  0  0  0  0  0
  -15.7422   -0.0533    7.3537 C   0  0  0  0  0  0
  -16.1527    1.1144    6.6808 C   0  0  0  0  0  0
  -15.6758    1.4039    5.3834 C   0  0  0  0  0  0
  -14.7850    0.4965    4.7678 C   0  0  0  0  0  0
  -14.3759   -0.6744    5.4361 C   0  0  0  0  0  0
  -14.8530   -0.9490    6.7310 C   0  0  0  0  0  0
  -16.1171    2.6405    4.7003 C   0  0  0  0  0  0
  -15.7297    3.0213    3.5541 N   0  0  0  0  0  0
  -16.4968    4.3675    2.9411 S   0  0  0  0  0  0
  -17.8781    4.0105    2.5809 O   0  0  0  0  0  0
  -16.2734    5.5002    3.8541 O   0  0  0  0  0  0
  -15.5829    4.7103    1.4197 C   0  0  0  0  0  0
  -14.4670    5.5624    1.4756 C   0  0  0  0  0  0
  -13.7194    5.7622    0.3078 C   0  0  0  0  0  0
  -14.1256    5.1034   -0.8638 C   0  0  0  0  0  0
  -15.2478    4.2598   -0.8131 C   0  0  0  0  0  0
  -15.9660    4.0545    0.3027 N   0  0  0  0  0  0
  -13.2401    3.3492    6.4798 N   0  0  0  0  0  0
  -13.3097    2.9370    7.7930 C   0  0  0  0  0  0
  -14.3272    3.6391    8.3783 C   0  0  0  0  0  0
  -14.8941    4.4953    7.3880 C   0  0  0  0  0  0
  -14.2155    4.2884    6.2190 C   0  0  0  0  0  0
   -8.3838    3.0041   -1.3723 H   0  0  0  0  0  0
   -6.0443    3.4123   -1.9776 H   0  0  0  0  0  0
   -5.5838    6.0173    1.4124 H   0  0  0  0  0  0
   -7.4248    6.3988    2.9050 H   0  0  0  0  0  0
   -4.6292    4.9241   -0.5970 H   0  0  0  0  0  0
  -10.0085    5.5793   -1.4230 H   0  0  0  0  0  0
  -12.7310    0.8217   -2.3150 H   0  0  0  0  0  0
  -12.6728    2.3922   -4.1545 H   0  0  0  0  0  0
  -10.6135    6.1464   -3.7381 H   0  0  0  0  0  0
  -11.9479    4.5596   -5.1149 H   0  0  0  0  0  0
  -14.0995    2.6657    2.8533 H   0  0  0  0  0  0
   -9.1013    3.4808    4.5679 H   0  0  0  0  0  0
  -10.6240    6.4878    7.2580 H   0  0  0  0  0  0
   -9.7422    9.2999    3.7204 H   0  0  0  0  0  0
   -7.4398    6.4020    5.9345 H   0  0  0  0  0  0
  -12.5229    6.4996    5.9548 H   0  0  0  0  0  0
  -11.1297    7.9650    2.1476 H   0  0  0  0  0  0
  -14.1346   -2.2683    2.0446 H   0  0  0  0  0  0
  -14.7132    1.4607   -0.0367 H   0  0  0  0  0  0
  -14.3682   -2.6857   -0.6652 H   0  0  0  0  0  0
  -10.5826   -1.0780   -1.9604 H   0  0  0  0  0  0
  -10.0476   -2.2948    0.2696 H   0  0  0  0  0  0
  -12.3588   -0.1987    3.2399 H   0  0  0  0  0  0
   -8.9707    1.8722    6.4393 H   0  0  0  0  0  0
   -9.6652    2.5593    8.7310 H   0  0  0  0  0  0
  -10.4955    4.8716    9.1314 H   0  0  0  0  0  0
   -8.0692   11.0401    4.2592 H   0  0  0  0  0  0
   -6.0775   10.4753    5.6411 H   0  0  0  0  0  0
   -5.7665    8.1495    6.4737 H   0  0  0  0  0  0
  -14.6885    7.6328    5.6002 H   0  0  0  0  0  0
  -15.0833    8.9648    3.5382 H   0  0  0  0  0  0
  -13.2961    9.1339    1.8101 H   0  0  0  0  0  0
  -16.4682   -2.1570    2.8883 H   0  0  0  0  0  0
  -17.9221   -0.2286    2.2787 H   0  0  0  0  0  0
  -17.0411    1.5726    0.8123 H   0  0  0  0  0  0
  -14.3207   -4.3041   -2.5369 H   0  0  0  0  0  0
  -12.4110   -4.3153   -4.1331 H   0  0  0  0  0  0
  -10.5391   -2.7008   -3.8377 H   0  0  0  0  0  0
   -8.5078   -3.0938    2.0362 H   0  0  0  0  0  0
   -8.8874   -2.4506    4.4111 H   0  0  0  0  0  0
  -10.8185   -0.9895    5.0052 H   0  0  0  0  0  0
  -16.1065   -0.2573    8.3501 H   0  0  0  0  0  0
  -16.8244    1.8005    7.1766 H   0  0  0  0  0  0
  -14.4220    0.6883    3.7698 H   0  0  0  0  0  0
  -13.6992   -1.3640    4.9531 H   0  0  0  0  0  0
  -14.5376   -1.8451    7.2458 H   0  0  0  0  0  0
  -16.8547    3.2350    5.2488 H   0  0  0  0  0  0
  -14.1905    6.0231    2.4118 H   0  0  0  0  0  0
  -12.8473    6.3997    0.3120 H   0  0  0  0  0  0
  -13.5746    5.2240   -1.7856 H   0  0  0  0  0  0
  -15.5715    3.7280   -1.6957 H   0  0  0  0  0  0
  -12.5712    2.9915    5.7845 H   0  0  0  0  0  0
  -12.6278    2.1929    8.1794 H   0  0  0  0  0  0
  -14.6307    3.5498    9.4114 H   0  0  0  0  0  0
  -15.7102    5.1920    7.5176 H   0  0  0  0  0  0
  -14.3039    4.7485    5.2460 H   0  0  0  0  0  0
  1  2  1  0  0  0
  1  3  2  0  0  0
  1 86  1  0  0  0
  2  4  2  0  0  0
  2  5  1  0  0  0
  3  8  1  0  0  0
  3 87  1  0  0  0
  4  6  1  0  0  0
  4  7  1  0  0  0
  5  9  2  0  0  0
  5 10  1  0  0  0
  6  8  2  0  0  0
  6 88  1  0  0  0
  7 11  2  0  0  0
  7 89  1  0  0  0
  8 90  1  0  0  0
  9 11  1  0  0  0
  9 12  1  0  0  0
 10 14  2  0  0  0
 10 15  1  0  0  0
 11 13  1  0  0  0
 12 25  1  0  0  0
 13 28  1  0  0  0
 13 29  1  0  0  0
 13 30  1  0  0  0
 14 16  1  0  0  0
 14 17  1  0  0  0
 15 22  1  0  0  0
 15 20  2  0  0  0
 16 18  2  0  0  0
 16 19  1  0  0  0
 17 23  2  0  0  0
 17 91  1  0  0  0
 18 20  1  0  0  0
 18 92  1  0  0  0
 19 24  2  0  0  0
 19 93  1  0  0  0
 20 21  1  0  0  0
 21 31  1  0  0  0
 21 32  1  0  0  0
 21 33  1  0  0  0
 22 25  1  0  0  0
 23 24  1  0  0  0
 23 94  1  0  0  0
 24 95  1  0  0  0
 25 26  2  0  0  0
 25 27  1  0  0  0
 27 96  1  0  0  0
 28 34  2  0  0  0
 28 35  1  0  0  0
 29 36  2  0  0  0
 29 37  1  0  0  0
 30 38  2  0  0  0
 30 39  1  0  0  0
 31 40  2  0  0  0
 31 41  1  0  0  0
 32 42  2  0  0  0
 32 43  1  0  0  0
 33 44  2  0  0  0
 33 45  1  0  0  0
 34 46  1  0  0  0
 34 97  1  0  0  0
 35 48  2  0  0  0
 35 98  1  0  0  0
 36 49  1  0  0  0
 36 99  1  0  0  0
 37 51  2  0  0  0
 37100  1  0  0  0
 38 52  1  0  0  0
 38101  1  0  0  0
 39 54  2  0  0  0
 39102  1  0  0  0
 40 55  1  0  0  0
 40103  1  0  0  0
 41 57  2  0  0  0
 41104  1  0  0  0
 42 58  1  0  0  0
 42105  1  0  0  0
 43 60  2  0  0  0
 43106  1  0  0  0
 44 61  1  0  0  0
 44107  1  0  0  0
 45 63  2  0  0  0
 45108  1  0  0  0
 46 47  2  0  0  0
 46109  1  0  0  0
 47 48  1  0  0  0
 47110  1  0  0  0
 48111  1  0  0  0
 49 50  2  0  0  0
 49112  1  0  0  0
 50 51  1  0  0  0
 50113  1  0  0  0
 51114  1  0  0  0
 52 53  2  0  0  0
 52115  1  0  0  0
 53 54  1  0  0  0
 53116  1  0  0  0
 54117  1  0  0  0
 55 56  2  0  0  0
 55118  1  0  0  0
 56 57  1  0  0  0
 56119  1  0  0  0
 57120  1  0  0  0
 58 59  2  0  0  0
 58121  1  0  0  0
 59 60  1  0  0  0
 59122  1  0  0  0
 60123  1  0  0  0
 61 62  2  0  0  0
 61124  1  0  0  0
 62 63  1  0  0  0
 62125  1  0  0  0
 63126  1  0  0  0
 64 65  1  0  0  0
 64 69  2  0  0  0
 64127  1  0  0  0
 65 66  2  0  0  0
 65128  1  0  0  0
 66 67  1  0  0  0
 66 70  1  0  0  0
 67 68  2  0  0  0
 67129  1  0  0  0
 68 69  1  0  0  0
 68130  1  0  0  0
 69131  1  0  0  0
 70 71  2  0  0  0
 70132  1  0  0  0
 71 72  1  0  0  0
 72 73  2  0  0  0
 72 74  2  0  0  0
 72 75  1  0  0  0
 75 76  2  0  0  0
 75 80  1  0  0  0
 76 77  1  0  0  0
 76133  1  0  0  0
 77 78  2  0  0  0
 77134  1  0  0  0
 78 79  1  0  0  0
 78135  1  0  0  0
 79 80  2  0  0  0
 79136  1  0  0  0
 81 82  1  0  0  0
 81 85  1  0  0  0
 81137  1  0  0  0
 82 83  2  0  0  0
 82138  1  0  0  0
 83 84  1  0  0  0
 83139  1  0  0  0
 84 85  2  0  0  0
 84140  1  0  0  0
 85141  1  0  0  0
M  END
> <s_m_entry_id>
4

> <s_m_entry_name>
mmod_csearch-type-I-E-SiPh3.2

> <s_m_job_name>
mmod_csearch-type-I-E-SiPh3

> <r_mmod_Potential_Energy-OPLS-2005>
265.410858

> <b_mmod_Minimization_Converged-OPLS-2005>
1

> <r_mmod_RMS_Derivative-OPLS-2005>
0.000997

> <i_mmod_Times_Found-OPLS-2005>
27

> <r_mmod_Relative_Potential_Energy-OPLS-2005>
2.517609

> <i_mmod_Conformation-OPLS-2005>
2

> <i_mmod_Serial_Number-OPLS-2005>
1

$$$$
