Type II
                    3D
 Structure written by MMmdl.
141152  0  0  1  0            999 V2000
   -7.5436    3.5540    1.1248 C   0  0  0  0  0  0
   -8.2870    2.5613    1.8117 C   0  0  0  0  0  0
   -6.2912    3.2561    0.5548 C   0  0  0  0  0  0
   -7.7482    1.2543    1.8927 C   0  0  0  0  0  0
   -9.5488    2.8450    2.4067 C   0  0  0  0  0  0
   -6.4912    0.9580    1.3257 C   0  0  0  0  0  0
   -8.4597    0.2392    2.5508 C   0  0  0  0  0  0
   -5.7618    1.9579    0.6580 C   0  0  0  0  0  0
  -10.3053    1.7656    2.9410 C   0  0  0  0  0  0
  -10.0798    4.2357    2.4788 C   0  0  0  0  0  0
   -9.7403    0.4717    3.0898 C   0  0  0  0  0  0
  -11.6029    1.9964    3.3061 O   0  0  0  0  0  0
  -10.6060   -0.9998    3.9467 Si  0  0  0  0  0  0
   -9.3950    5.2723    3.1754 C   0  0  0  0  0  0
  -11.3076    4.5493    1.8452 C   0  0  0  0  0  0
   -9.8867    6.6014    3.1268 C   0  0  0  0  0  0
   -8.2298    5.0146    3.9402 C   0  0  0  0  0  0
  -11.0646    6.8925    2.4198 C   0  0  0  0  0  0
   -9.2097    7.6434    3.7938 C   0  0  0  0  0  0
  -11.7906    5.8789    1.7687 C   0  0  0  0  0  0
  -13.4222    6.3884    0.9304 Si  0  0  0  0  0  0
  -12.0326    3.5287    1.3106 O   0  0  0  0  0  0
   -7.5611    6.0542    4.6136 C   0  0  0  0  0  0
   -8.0471    7.3709    4.5364 C   0  0  0  0  0  0
  -12.7552    2.4051    2.2305 P   0  0  0  0  0  0
  -13.4062    1.2871    1.4956 O   0  0  0  0  0  0
  -13.7614    3.2896    3.1202 O   0  0  0  0  0  0
  -11.0907   -0.6615    5.7513 C   0  0  0  0  0  0
  -12.1171   -1.5939    2.9815 C   0  0  0  0  0  0
   -9.3844   -2.4472    4.0026 C   0  0  0  0  0  0
  -13.1075    7.9590   -0.0772 C   0  0  0  0  0  0
  -14.0992    5.1205   -0.3061 C   0  0  0  0  0  0
  -14.6872    6.7859    2.2893 C   0  0  0  0  0  0
  -11.3630    0.6377    6.2309 C   0  0  0  0  0  0
  -11.2703   -1.7532    6.6307 C   0  0  0  0  0  0
  -13.1542   -2.2968    3.6321 C   0  0  0  0  0  0
  -12.1650   -1.4625    1.5777 C   0  0  0  0  0  0
   -9.4320   -3.4756    3.0364 C   0  0  0  0  0  0
   -8.3506   -2.4644    4.9641 C   0  0  0  0  0  0
  -14.1705    8.8367   -0.3812 C   0  0  0  0  0  0
  -11.8344    8.2174   -0.6307 C   0  0  0  0  0  0
  -13.2269    4.4296   -1.1753 C   0  0  0  0  0  0
  -15.4907    4.9382   -0.4646 C   0  0  0  0  0  0
  -15.5523    5.7913    2.7938 C   0  0  0  0  0  0
  -14.7204    8.0686    2.8795 C   0  0  0  0  0  0
  -11.7908    0.8424    7.5567 C   0  0  0  0  0  0
  -11.9577   -0.2529    8.4222 C   0  0  0  0  0  0
  -11.6920   -1.5540    7.9595 C   0  0  0  0  0  0
  -14.2471   -2.8062    2.9051 C   0  0  0  0  0  0
  -14.3053   -2.6298    1.5105 C   0  0  0  0  0  0
  -13.2598   -1.9625    0.8459 C   0  0  0  0  0  0
   -8.4877   -4.5206    3.0528 C   0  0  0  0  0  0
   -7.4744   -4.5384    4.0294 C   0  0  0  0  0  0
   -7.4042   -3.5072    4.9845 C   0  0  0  0  0  0
  -13.9551    9.9809   -1.1737 C   0  0  0  0  0  0
  -12.6736   10.2465   -1.6909 C   0  0  0  0  0  0
  -11.6134    9.3603   -1.4238 C   0  0  0  0  0  0
  -13.7256    3.5140   -2.1219 C   0  0  0  0  0  0
  -15.1123    3.3044   -2.2336 C   0  0  0  0  0  0
  -15.9964    4.0254   -1.4105 C   0  0  0  0  0  0
  -16.4763    6.0835    3.8148 C   0  0  0  0  0  0
  -16.5283    7.3780    4.3636 C   0  0  0  0  0  0
  -15.6427    8.3694    3.9013 C   0  0  0  0  0  0
  -15.9412   -2.0007    7.8151 C   0  0  0  0  0  0
  -15.1978   -1.2504    6.8832 C   0  0  0  0  0  0
  -15.7115   -0.0484    6.3515 C   0  0  0  0  0  0
  -16.9965    0.3809    6.7543 C   0  0  0  0  0  0
  -17.7439   -0.3676    7.6845 C   0  0  0  0  0  0
  -17.2155   -1.5584    8.2173 C   0  0  0  0  0  0
  -14.9074    0.6991    5.3550 C   0  0  0  0  0  0
  -14.6385    1.9397    5.2841 N   0  0  0  0  0  0
  -15.0209    3.0038    6.5142 S   0  0  0  0  0  0
  -16.3516    3.5799    6.2615 O   0  0  0  0  0  0
  -14.7340    2.4007    7.8256 O   0  0  0  0  0  0
  -13.8106    4.3220    6.2807 C   0  0  0  0  0  0
  -14.2203    5.6635    6.3572 C   0  0  0  0  0  0
  -13.2577    6.6645    6.1727 C   0  0  0  0  0  0
  -11.9267    6.2770    5.9475 C   0  0  0  0  0  0
  -11.6178    4.9072    5.8953 C   0  0  0  0  0  0
  -12.5333    3.9389    6.0570 N   0  0  0  0  0  0
  -16.0154    0.9886    2.1589 N   0  0  0  0  0  0
  -16.7859    2.1182    1.9902 C   0  0  0  0  0  0
  -17.8998    1.9605    2.7667 C   0  0  0  0  0  0
  -17.8040    0.6932    3.4141 C   0  0  0  0  0  0
  -16.6224    0.1159    3.0373 C   0  0  0  0  0  0
   -7.9226    4.5595    1.0189 H   0  0  0  0  0  0
   -5.7377    4.0261    0.0370 H   0  0  0  0  0  0
   -6.0814   -0.0394    1.3966 H   0  0  0  0  0  0
   -8.0164   -0.7433    2.6203 H   0  0  0  0  0  0
   -4.8005    1.7276    0.2218 H   0  0  0  0  0  0
   -7.8305    4.0148    4.0265 H   0  0  0  0  0  0
  -11.4373    7.9069    2.3917 H   0  0  0  0  0  0
   -9.5831    8.6563    3.7458 H   0  0  0  0  0  0
   -6.6714    5.8388    5.1881 H   0  0  0  0  0  0
   -7.5313    8.1700    5.0495 H   0  0  0  0  0  0
  -14.1579    2.7524    3.7979 H   0  0  0  0  0  0
  -11.2491    1.4970    5.5907 H   0  0  0  0  0  0
  -11.0820   -2.7590    6.2812 H   0  0  0  0  0  0
  -13.1129   -2.4522    4.6993 H   0  0  0  0  0  0
  -11.3676   -0.9521    1.0566 H   0  0  0  0  0  0
  -10.2017   -3.4696    2.2774 H   0  0  0  0  0  0
   -8.2868   -1.6709    5.6961 H   0  0  0  0  0  0
  -15.1616    8.6302   -0.0016 H   0  0  0  0  0  0
  -11.0177    7.5341   -0.4461 H   0  0  0  0  0  0
  -12.1609    4.5911   -1.1039 H   0  0  0  0  0  0
  -16.1830    5.4999    0.1457 H   0  0  0  0  0  0
  -15.5199    4.7929    2.3852 H   0  0  0  0  0  0
  -14.0434    8.8364    2.5326 H   0  0  0  0  0  0
  -12.0053    1.8426    7.9060 H   0  0  0  0  0  0
  -12.2971   -0.0922    9.4355 H   0  0  0  0  0  0
  -11.8225   -2.3988    8.6204 H   0  0  0  0  0  0
  -15.0401   -3.3333    3.4163 H   0  0  0  0  0  0
  -15.1465   -3.0106    0.9494 H   0  0  0  0  0  0
  -13.2989   -1.8269   -0.2252 H   0  0  0  0  0  0
   -8.5406   -5.3076    2.3141 H   0  0  0  0  0  0
   -6.7497   -5.3396    4.0430 H   0  0  0  0  0  0
   -6.6235   -3.5143    5.7315 H   0  0  0  0  0  0
  -14.7756   10.6495   -1.3917 H   0  0  0  0  0  0
  -12.5074   11.1212   -2.3031 H   0  0  0  0  0  0
  -10.6327    9.5524   -1.8346 H   0  0  0  0  0  0
  -13.0443    2.9744   -2.7636 H   0  0  0  0  0  0
  -15.4978    2.6017   -2.9580 H   0  0  0  0  0  0
  -17.0630    3.8814   -1.5073 H   0  0  0  0  0  0
  -17.1382    5.3098    4.1804 H   0  0  0  0  0  0
  -17.2383    7.6035    5.1463 H   0  0  0  0  0  0
  -15.6720    9.3611    4.3292 H   0  0  0  0  0  0
  -15.5313   -2.9126    8.2242 H   0  0  0  0  0  0
  -14.2167   -1.5927    6.5894 H   0  0  0  0  0  0
  -17.4210    1.2848    6.3416 H   0  0  0  0  0  0
  -18.7228   -0.0252    7.9873 H   0  0  0  0  0  0
  -17.7871   -2.1307    8.9337 H   0  0  0  0  0  0
  -14.4567    0.0591    4.5931 H   0  0  0  0  0  0
  -15.2587    5.8998    6.5361 H   0  0  0  0  0  0
  -13.5333    7.7083    6.2081 H   0  0  0  0  0  0
  -11.1503    7.0145    5.8071 H   0  0  0  0  0  0
  -10.6037    4.5798    5.7220 H   0  0  0  0  0  0
  -15.0903    0.8553    1.7253 H   0  0  0  0  0  0
  -16.4668    2.9163    1.3353 H   0  0  0  0  0  0
  -18.7051    2.6757    2.8547 H   0  0  0  0  0  0
  -18.5242    0.2533    4.0895 H   0  0  0  0  0  0
  -16.1783   -0.8385    3.2811 H   0  0  0  0  0  0
  1  2  1  0  0  0
  1  3  2  0  0  0
  1 86  1  0  0  0
  2  4  2  0  0  0
  2  5  1  0  0  0
  3  8  1  0  0  0
  3 87  1  0  0  0
  4  6  1  0  0  0
  4  7  1  0  0  0
  5  9  2  0  0  0
  5 10  1  0  0  0
  6  8  2  0  0  0
  6 88  1  0  0  0
  7 11  2  0  0  0
  7 89  1  0  0  0
  8 90  1  0  0  0
  9 11  1  0  0  0
  9 12  1  0  0  0
 10 14  2  0  0  0
 10 15  1  0  0  0
 11 13  1  0  0  0
 12 25  1  0  0  0
 13 28  1  0  0  0
 13 29  1  0  0  0
 13 30  1  0  0  0
 14 16  1  0  0  0
 14 17  1  0  0  0
 15 22  1  0  0  0
 15 20  2  0  0  0
 16 18  2  0  0  0
 16 19  1  0  0  0
 17 23  2  0  0  0
 17 91  1  0  0  0
 18 20  1  0  0  0
 18 92  1  0  0  0
 19 24  2  0  0  0
 19 93  1  0  0  0
 20 21  1  0  0  0
 21 31  1  0  0  0
 21 32  1  0  0  0
 21 33  1  0  0  0
 22 25  1  0  0  0
 23 24  1  0  0  0
 23 94  1  0  0  0
 24 95  1  0  0  0
 25 26  2  0  0  0
 25 27  1  0  0  0
 27 96  1  0  0  0
 28 34  2  0  0  0
 28 35  1  0  0  0
 29 36  2  0  0  0
 29 37  1  0  0  0
 30 38  2  0  0  0
 30 39  1  0  0  0
 31 40  2  0  0  0
 31 41  1  0  0  0
 32 42  2  0  0  0
 32 43  1  0  0  0
 33 44  2  0  0  0
 33 45  1  0  0  0
 34 46  1  0  0  0
 34 97  1  0  0  0
 35 48  2  0  0  0
 35 98  1  0  0  0
 36 49  1  0  0  0
 36 99  1  0  0  0
 37 51  2  0  0  0
 37100  1  0  0  0
 38 52  1  0  0  0
 38101  1  0  0  0
 39 54  2  0  0  0
 39102  1  0  0  0
 40 55  1  0  0  0
 40103  1  0  0  0
 41 57  2  0  0  0
 41104  1  0  0  0
 42 58  1  0  0  0
 42105  1  0  0  0
 43 60  2  0  0  0
 43106  1  0  0  0
 44 61  1  0  0  0
 44107  1  0  0  0
 45 63  2  0  0  0
 45108  1  0  0  0
 46 47  2  0  0  0
 46109  1  0  0  0
 47 48  1  0  0  0
 47110  1  0  0  0
 48111  1  0  0  0
 49 50  2  0  0  0
 49112  1  0  0  0
 50 51  1  0  0  0
 50113  1  0  0  0
 51114  1  0  0  0
 52 53  2  0  0  0
 52115  1  0  0  0
 53 54  1  0  0  0
 53116  1  0  0  0
 54117  1  0  0  0
 55 56  2  0  0  0
 55118  1  0  0  0
 56 57  1  0  0  0
 56119  1  0  0  0
 57120  1  0  0  0
 58 59  2  0  0  0
 58121  1  0  0  0
 59 60  1  0  0  0
 59122  1  0  0  0
 60123  1  0  0  0
 61 62  2  0  0  0
 61124  1  0  0  0
 62 63  1  0  0  0
 62125  1  0  0  0
 63126  1  0  0  0
 64 65  1  0  0  0
 64 69  2  0  0  0
 64127  1  0  0  0
 65 66  2  0  0  0
 65128  1  0  0  0
 66 67  1  0  0  0
 66 70  1  0  0  0
 67 68  2  0  0  0
 67129  1  0  0  0
 68 69  1  0  0  0
 68130  1  0  0  0
 69131  1  0  0  0
 70 71  2  0  0  0
 70132  1  0  0  0
 71 72  1  0  0  0
 72 73  2  0  0  0
 72 74  2  0  0  0
 72 75  1  0  0  0
 75 76  2  0  0  0
 75 80  1  0  0  0
 76 77  1  0  0  0
 76133  1  0  0  0
 77 78  2  0  0  0
 77134  1  0  0  0
 78 79  1  0  0  0
 78135  1  0  0  0
 79 80  2  0  0  0
 79136  1  0  0  0
 81 82  1  0  0  0
 81 85  1  0  0  0
 81137  1  0  0  0
 82 83  2  0  0  0
 82138  1  0  0  0
 83 84  1  0  0  0
 83139  1  0  0  0
 84 85  2  0  0  0
 84140  1  0  0  0
 85141  1  0  0  0
M  END
> <s_m_entry_id>
6

> <s_m_entry_name>
Toru-SiPh3-Type-I-Z.1

> <s_m_job_name>
Toru-SiPh3-Type-I-Z_conformation

> <r_mmod_Relative_Potential_Energy-OPLS-2005>
0.82623291015625

> <r_mmod_Potential_Energy-OPLS-2005>
293.880706787109

> <b_mmod_Minimization_Converged-OPLS-2005>
1

> <r_mmod_RMS_Derivative-OPLS-2005>
0.000701239157933742

> <i_mmod_Times_Found-OPLS-2005>
140

> <i_mmod_Conformation-OPLS-2005>
2

> <i_mmod_Serial_Number-OPLS-2005>
1

> <s_m_Source_Path>
/home/ab2144/Toru-SiPh3-Type-I-Z.sdf

> <s_m_Source_File>
Toru-SiPh3-Type-I-Z.sdf

$$$$
